data/state_estimation/SE_PT2030_Su/state_estimation_PT2030_Su_t22.csv
bus,vm_pu,va_degree,p_mw,q_mvar
1,1.037170,0.114571,-0.823783,-52.772073
2,1.038530,0.215871,-0.858512,-39.022628
3,1.043276,0.136594,-0.813962,-37.933849
4,1.038346,-0.056208,-0.880342,-52.452420
5,1.022233,0.156259,-40.484362,-17.272312
6,1.022875,0.162253,-0.784302,-7.699177
7,1.043522,-0.068949,-0.803610,69.765060
8,1.011734,0.033988,-0.820337,-0.037154
9,1.029863,-0.077211,-0.812293,-0.036172
10,1.038634,-0.081054,-0.758177,-0.045619
11,1.021260,-0.092103,-4.777459,-0.117048
12,1.013003,-0.094898,-0.785522,0.012487
13,1.026648,-0.083517,-7.959253,-1.524934
14,1.029946,-0.075162,-0.763842,-0.033339
15,1.044218,-0.057358,-0.801353,-0.008488
16,1.010394,0.157849,-0.817383,-0.043517
17,1.026489,0.082187,-0.849804,0.051851
18,1.015363,0.031847,-0.825631,-0.055178
19,1.011092,-0.131002,-0.836177,0.011487
20,1.020579,-0.092866,-0.770647,0.061647
21,1.023680,0.079590,-0.854407,-0.098872
22,1.026754,-0.062399,96.251312,-49.749975
23,1.005473,-0.113392,-0.790237,-0.027294
24,1.025491,0.166547,-0.839517,0.029123
25,1.018314,0.053129,-0.776918,-0.033482
26,1.041776,-0.071206,-4.772069,-0.269310
27,1.037154,-0.070247,-4.754830,-0.060253
28,1.032027,-0.069221,-3.623353,0.406513
29,1.024161,-0.074080,-0.816033,-0.107204
30,1.032417,0.084393,30.181616,6.230414
31,1.020873,0.184733,-0.815328,0.050449
32,1.028224,0.078603,-0.844497,-0.049829
33,1.034025,0.086567,-0.796644,0.031963
34,1.021832,-0.078003,-0.808648,-0.083787
35,1.003017,0.105454,-0.811674,0.017852
36,1.016840,0.033518,-0.808818,0.025785
37,1.020408,-0.050716,-0.700491,0.055671
38,1.021420,0.090507,-0.831139,0.010020
39,1.021847,0.088381,-0.795476,-0.061449
40,1.025917,0.162411,-0.784580,0.078758
41,1.021872,0.082774,-0.789734,-0.032259
42,1.020063,0.139898,-0.855216,0.025566
43,1.020015,-0.057204,-0.760000,-0.018234
44,1.020361,0.090204,-0.831319,-0.000725
45,1.021583,0.008009,-0.890255,-0.002801
46,1.019811,-0.021159,-0.746353,-0.064249
47,1.024653,0.133978,-0.805912,0.085222
48,1.018629,0.083899,-0.787391,0.001397
49,1.023715,0.096060,-0.782965,0.006717
50,1.021902,-0.049657,-40.461221,-0.063243
51,1.025318,0.146950,-0.880045,0.043909
52,1.022593,0.045826,-0.851770,0.036738
53,1.020470,0.078678,-0.761086,0.065261
54,1.028161,0.285095,-0.720965,-0.069381
55,1.018407,-0.059290,-0.813396,-0.007222
56,1.021329,-0.059743,-0.721752,-0.079141
57,1.023608,0.097597,-0.747159,0.015713
58,1.019200,-0.060985,-0.832097,-0.021776
59,1.021272,-0.053185,-0.857636,0.010568
60,1.023493,0.110306,-0.850939,0.012719
61,1.026594,0.135821,89.157816,10.605484
62,1.020307,0.188522,-0.866763,-0.045937
63,1.028332,0.257121,-0.773374,-0.043559
64,1.016267,-0.007364,-0.734590,-0.120527
65,1.023538,0.161290,-0.824715,0.026448
66,1.024225,0.117936,-0.781933,-0.003612
67,1.024762,0.105430,-3.042346,0.805543
68,1.020969,0.079130,-0.844573,0.084913
69,1.023318,0.091918,-0.704248,-0.001182
70,1.024176,0.118934,-0.736076,-0.015086
71,1.021376,0.085084,-0.939381,0.041279
72,1.017204,0.186369,-0.833134,-0.045538
73,1.025898,0.230652,-0.882914,-0.055361
74,1.018399,-0.013112,-0.863815,-0.010914
75,1.025112,0.194835,-0.779574,-0.070406
76,1.017987,-0.059045,-0.891280,0.083064
77,1.025503,0.250737,-0.871373,-0.090379
78,1.020767,0.118447,-0.839738,-0.014610
79,1.025092,0.204723,-0.737945,-0.075272
80,1.043745,-0.054164,-0.810427,0.042945
81,1.035675,0.093206,-0.788967,-0.006416
82,1.040817,-0.016104,-0.787805,0.009074
83,1.044224,0.077953,-0.820835,-0.017730
84,1.042872,-0.039796,-0.743687,0.028715
85,1.037015,0.045801,-0.820826,0.020735
86,1.043495,-0.041518,-0.917620,0.035631
87,1.045841,-0.039012,-0.821602,0.017688
88,1.036610,0.099221,-0.747215,-0.123996
89,1.042292,-0.021521,-0.787344,0.049739
90,1.036319,0.146826,-0.795213,-0.022938
91,1.037659,0.101273,-0.801851,0.038820
92,1.031153,0.092383,-0.825987,0.045371
93,1.036478,0.099112,-0.684552,0.014208
94,1.036203,0.094562,-0.870745,0.044902
95,1.044081,0.088739,-0.823384,-0.061510
96,1.037989,0.114683,-0.776865,-0.042568
97,1.042856,-0.038775,-0.836908,-0.013237
98,1.044604,0.136168,-0.786816,-0.038572
99,1.048726,0.125311,-0.919957,-0.012874
100,1.044582,-0.000266,-0.774973,-0.062642
101,1.036919,0.097450,-0.791057,-0.008796
102,1.030137,-0.058009,-0.779160,0.030950
103,1.039431,0.123835,-0.760386,0.036198
104,1.034377,0.101802,-0.792757,0.028558
105,1.042065,-0.055358,-0.938846,0.110281
106,1.039197,0.215136,-0.816518,0.024737
107,1.034203,-0.067970,-0.756978,0.062692
108,1.007467,0.069218,-8.335891,-7.182101
109,1.018069,-0.027131,-204.440309,-26.825433
110,1.017357,-0.104581,-179.693315,-18.610327
111,1.018817,0.046805,-131.941273,-15.797672
112,1.028140,-0.092621,-69.525896,-6.921706
113,1.030422,-0.126953,-103.823823,-1.607240
114,1.019275,0.090461,4.889023,-20.054886
115,1.006615,0.155390,-26.228570,19.191486
116,1.011539,0.019723,-294.586635,-48.350275
117,1.015330,-0.114409,-47.954771,-11.392502
118,1.015067,0.148480,28.905657,-21.232228
119,1.031829,-0.060713,-162.045125,-45.881955
120,1.018100,0.049702,-174.853541,-4.397574
121,1.006605,-0.134602,-155.749363,-36.012140
122,1.030768,0.057070,-77.094465,-40.723910
123,1.026159,-0.115883,-147.084883,-30.078924
124,1.020306,-0.029877,-123.445568,1.636681
125,1.018607,-0.057830,-125.193642,-18.825876
126,1.029752,-0.076153,-103.983528,-26.164102
127,1.019257,0.136053,5.610131,-5.912393
128,1.027877,0.069749,-96.982376,-41.424886
129,1.022588,0.025054,-192.929217,-14.162185
130,1.013212,0.041821,-255.367067,-44.277037
131,1.025265,-0.067760,-157.698038,-30.606737
132,1.010365,0.037780,-28.176683,-3.308595
133,1.005165,-0.019387,-181.238925,31.085437
134,1.019277,0.026419,-161.766165,7.042953
135,1.019093,-0.097705,-180.253144,-27.036705
136,1.018417,-0.118373,-206.244112,-39.811202
137,1.019339,0.027673,-143.895393,-11.316021
138,1.018080,0.079130,-120.139475,-24.739560
139,1.014259,-0.126179,-226.557065,-15.993086
140,1.011560,-0.176340,-79.046961,-16.543695
141,1.019828,-0.136191,-92.568666,-16.804903
142,1.019613,0.019936,-125.369064,-10.116084
143,1.005612,-0.099261,-86.579559,-16.184244
144,1.018407,0.076508,-69.195291,-0.133402
145,1.021704,0.060930,-182.428575,21.680695
146,1.014537,-0.063752,-0.826793,1.503506
147,1.021131,-0.091582,-56.020914,-15.896325
148,1.007920,0.189773,-0.850230,0.025896
149,1.001374,-0.171695,-192.616618,-39.009853
150,1.018195,0.137962,-39.016470,-2.950694
151,1.014003,-0.010803,-204.018928,-42.147392
152,1.015889,0.164141,-68.659023,-3.769995
153,1.018300,0.249737,-7.836294,3.834950
154,1.010503,-0.051304,-97.427814,-15.177390
155,1.015008,0.181987,56.885001,-4.895615
156,1.020024,0.105969,-24.723379,8.439796
157,1.012072,0.021483,-110.205161,-10.721446
158,1.021856,0.082508,-33.712879,-13.413320
159,1.019467,-0.046920,58.887850,10.412011
160,1.022387,0.130083,14.648342,-7.567469
161,1.017671,0.128610,91.214136,8.249174
162,1.017384,0.197322,21.475346,4.508893
163,1.026038,0.075958,-24.033620,8.278337
164,1.024793,-0.060899,-10.764413,-0.747491
165,1.007388,0.243300,49.936438,-7.975473
166,1.008443,0.011103,50.213291,-25.704495
167,1.010349,0.186615,-25.152980,18.343729
168,1.019079,-0.073493,-131.233599,-62.038827
169,1.023680,-0.027615,105.102003,27.495358
170,1.017823,0.104264,-27.738181,14.194808
171,1.002243,0.065516,-50.049818,-12.934694
172,1.007560,0.191482,-27.825726,2.479153
173,1.034490,0.090160,71.172358,-10.835892
174,1.033641,0.089344,20.240545,-3.673111
175,1.042650,0.062771,53.157317,10.229486
176,1.038101,0.052952,21.152601,46.911650
177,1.036130,0.087005,-0.855048,-0.042108
178,1.008995,0.168001,28.186212,-8.832563
179,1.037249,0.087616,30.346398,24.161271
180,1.028440,-0.080760,-0.776213,0.012154
181,1.028327,0.175641,65.171819,4.551342
182,1.035712,0.086594,-0.835211,30.013196
183,1.047386,-0.040365,117.225145,15.412063
184,1.031988,0.084216,-0.899587,0.054652
185,1.033251,-0.073493,-0.763122,-0.013166
186,1.021185,-0.106341,-0.789357,-0.000220
187,1.017991,0.034045,25.604604,2.786225
188,1.017841,0.033144,25.770833,-16.917366
189,1.015915,0.033475,25.590375,-16.728413
190,1.020286,0.082325,-0.795388,-0.040768
191,1.028277,0.296956,183.658064,-25.213971
192,1.026529,0.273301,119.087024,-20.910605
193,1.025768,0.101046,-0.773678,0.004821
194,1.027322,0.175630,119.134942,-1.848868
195,1.021756,0.092911,-0.745032,5.994705
196,1.024811,0.163496,92.189476,-28.684163
197,1.025647,0.145890,-0.887467,-0.009735
198,1.025808,0.161393,-0.951302,5.775988
199,1.022352,0.045306,-0.757232,0.005386
200,1.027701,0.285393,31.715961,-16.288122
201,1.028609,0.285223,31.678968,13.177806
202,1.028100,0.284151,31.744169,13.073119
203,1.028071,0.285331,121.567551,-29.061347
204,1.018747,-0.056896,-0.722695,0.004677
205,1.019945,-0.058403,-0.857059,-0.000110
206,1.023772,0.109780,34.209060,-3.142200
207,1.024038,0.110062,34.249439,-2.549819
208,1.021445,0.089235,-0.790777,0.035187
209,1.022980,0.090856,-0.916469,-0.045777
210,1.022428,0.089803,-0.749174,0.007389
211,1.022356,0.093613,-0.748592,0.055863
212,1.022089,0.208446,-0.778953,0.024819
213,1.020184,-0.050124,-0.801616,0.017165
214,1.020327,-0.049160,-0.841712,0.020818
215,1.020726,-0.051344,-0.896862,0.045454
216,1.020478,-0.050040,-0.853444,-0.035080
217,1.021087,-0.052050,-0.783767,-0.030533
218,1.023888,0.117286,99.713057,-6.712293
219,1.018413,-0.059740,-0.804166,-0.094475
220,1.026577,0.107396,593.116542,156.579333
221,1.026840,0.106358,-0.769192,-0.010497
222,1.019986,-0.020952,234.344205,42.165095
223,1.021397,0.136574,-0.839885,-0.023250
224,1.023948,0.139719,-0.792652,-0.001537
225,1.040580,0.219478,94.743338,0.778880
226,1.046893,-0.037580,-0.895312,-0.011286
227,1.041426,-0.056454,-0.799160,-11.414110
228,1.041740,-0.056177,-0.856190,-17.548343
229,1.038541,0.101221,-0.814974,69.527007
230,1.038177,0.101798,-0.812320,-5.777692
231,1.038922,0.145486,-0.728301,9.167069
232,1.038972,0.114356,156.596890,-5.221104
233,1.037711,0.115547,156.629268,-5.787598
234,1.046963,-0.037121,117.115222,-4.740961
235,1.047369,-0.036659,117.205694,-4.654264
236,1.046041,-0.036559,117.170909,-4.672761
237,1.048777,0.124014,114.412532,14.831855
238,1.048558,0.125432,114.322400,14.907436
239,1.044675,0.000542,234.320105,-2.348659
240,1.044565,-0.000480,234.340651,44.133683
241,1.044067,0.094159,246.972721,2.309905
242,1.044115,0.093167,246.977733,5.119760
243,1.049396,0.125054,250.296993,19.767219
244,1.049836,0.123954,250.309527,14.876253
245,1.019068,-0.074825,-34.445759,-8.884736
246,1.028977,-0.082553,-22.154005,-5.525545
247,1.021395,-0.106350,-4.782449,0.581545
248,1.021765,0.175494,-3.020772,1.682738
249,1.027772,-0.081092,-7.508820,-0.726987
250,1.044724,-0.057663,-13.926214,30.233496
251,1.028369,0.120333,102.071301,-2.017317
252,1.029036,0.220638,86.004630,-7.351810
253,1.026693,0.221550,67.521406,-1.491041
254,1.034771,0.131243,109.729549,-7.814661
255,1.046019,-0.062364,-30.022440,30.269056
256,1.019162,0.081013,-96.055598,-15.108041
257,1.022926,0.150435,-4.205253,1.252614
258,1.021694,0.096892,-3.599377,1.355718
259,1.024228,0.175172,-3.571044,1.998360
260,0.996994,-0.076152,-118.431381,-25.252420
261,1.020074,0.188759,-1.942049,1.451069
262,1.023198,0.144946,76.872596,-1.283054
263,1.022439,0.216799,76.664238,-10.232264
264,1.025622,0.141777,111.077399,-9.538071
265,1.021739,0.136417,94.966143,-9.719077
266,1.022214,0.209165,106.481912,-13.129238
267,1.024257,0.194726,133.101161,-48.793711
268,1.038150,0.150062,140.617883,21.190235
269,1.007349,0.173869,-0.792984,-0.058456
270,1.006639,0.174301,-0.806275,-0.031821
271,1.006684,0.188238,-0.810750,-0.047372
272,1.006528,0.222244,-0.795947,-0.032509
273,1.013841,0.046765,29.173661,-6.796699
274,1.013756,0.044802,-0.911040,0.031475
275,1.014047,0.044069,-0.800428,-0.078083
276,1.011431,0.028469,-0.687372,-0.003367
277,1.011176,0.027123,-0.795691,0.018640
278,1.011452,0.026233,-0.826106,0.030000
279,1.012099,0.021813,-0.828153,-0.025381
280,1.013242,0.041983,-0.850207,-0.042686
281,1.013135,0.044303,-0.835495,0.022325
282,1.014326,0.045751,-0.836797,0.102742
283,1.010940,0.037978,-0.841736,0.029754
284,1.017503,0.055087,-0.834459,-0.046438
285,1.018155,0.055442,-0.877830,0.053702
286,1.021402,0.060605,-0.795401,-0.026198
287,1.005511,-0.016313,-0.808865,0.020420
288,1.005820,-0.016024,-0.831591,0.007891
289,1.006346,-0.009283,-0.795940,-0.005031
290,1.008154,-0.002224,-0.741165,0.044109
291,1.007681,-0.001784,-0.792081,-0.032647
292,1.007882,-0.001345,-0.749057,0.023003
293,1.010364,0.013383,24.016350,-7.276885
294,1.008492,0.186769,-0.781313,-0.016920
295,1.009832,0.186010,-0.813078,-0.003058
296,1.009222,0.185654,-0.931162,0.047025
297,1.008931,0.186212,-0.784836,-0.021066
298,1.007386,0.226898,-0.796015,0.089556
299,1.007733,0.225463,-0.848604,0.045491
300,1.007116,0.227060,-0.827617,-0.009134
301,1.007323,0.214071,-0.841585,-0.046978
302,1.007413,0.205894,-0.787200,-0.012131
303,1.007666,0.195555,-0.826330,0.031589
304,1.007233,0.195765,-0.876825,0.073448
